Circuit: * C:\Users\akram\OneDrive\Projects\PFMB\2_everyPassiveSeriesCircuit_VoltageSource_Sim.asc


Date: Fri Jun 19 11:06:59 2020
Total elapsed time: 0.044 seconds.

tnom = 27
temp = 27
method = trap
totiter = 0
traniter = 0
tranpoints = 0
accept = 0
rejected = 0
matrix size = 54
fillins = 2
solver = Normal

